<?xml version="1.0" encoding="UTF-8"?>

<!-- generated on Sun Jan  3 10:25:30 2021 by Eclipse SUMO netconvert Version 1.8.0
<configuration xmlns:xsi="http://www.w3.org/2001/XMLSchema-instance" xsi:noNamespaceSchemaLocation="http://sumo.dlr.de/xsd/netconvertConfiguration.xsd">

    <input>
        <osm-files value="map.osm"/>
    </input>

    <output>
        <output-file value="mapOriginal.net.xml"/>
    </output>

    <projection>
        <proj.utm value="true"/>
    </projection>

    <report>
        <aggregate-warnings value="5"/>
    </report>

</configuration>
-->

<net version="1.6" junctionCornerDetail="5" limitTurnSpeed="5.50" xmlns:xsi="http://www.w3.org/2001/XMLSchema-instance" xsi:noNamespaceSchemaLocation="http://sumo.dlr.de/xsd/net_file.xsd">

    <location netOffset="-385359.41,-5819427.71" convBoundary="0.00,0.00,1320.73,739.90" origBoundary="13.310525,52.511607,13.335429,52.520621" projParameter="+proj=utm +zone=33 +ellps=WGS84 +datum=WGS84 +units=m +no_defs"/>

    <type id="highway.bridleway" priority="1" numLanes="1" speed="2.78" allow="pedestrian" oneway="1" width="2.00"/>
    <type id="highway.bus_guideway" priority="1" numLanes="1" speed="27.78" allow="bus" oneway="1"/>
    <type id="highway.cycleway" priority="1" numLanes="1" speed="8.33" allow="bicycle" oneway="0" width="1.00"/>
    <type id="highway.footway" priority="1" numLanes="1" speed="2.78" allow="pedestrian" oneway="1" width="2.00"/>
    <type id="highway.ford" priority="1" numLanes="1" speed="2.78" allow="army" oneway="0"/>
    <type id="highway.living_street" priority="2" numLanes="1" speed="2.78" disallow="tram rail_urban rail rail_electric rail_fast ship" oneway="0"/>
    <type id="highway.motorway" priority="14" numLanes="2" speed="39.44" allow="private emergency authority army vip passenger hov taxi bus coach delivery truck trailer motorcycle evehicle custom1 custom2" oneway="1"/>
    <type id="highway.motorway_link" priority="9" numLanes="1" speed="22.22" allow="private emergency authority army vip passenger hov taxi bus coach delivery truck trailer motorcycle evehicle custom1 custom2" oneway="1"/>
    <type id="highway.path" priority="1" numLanes="1" speed="2.78" allow="pedestrian bicycle" oneway="0" width="2.00"/>
    <type id="highway.pedestrian" priority="1" numLanes="1" speed="2.78" allow="pedestrian" oneway="1" width="2.00"/>
    <type id="highway.primary" priority="12" numLanes="2" speed="27.78" disallow="tram rail_urban rail rail_electric rail_fast ship" oneway="0"/>
    <type id="highway.primary_link" priority="7" numLanes="1" speed="22.22" disallow="tram rail_urban rail rail_electric rail_fast ship" oneway="0"/>
    <type id="highway.raceway" priority="15" numLanes="2" speed="83.33" allow="vip" oneway="0"/>
    <type id="highway.residential" priority="3" numLanes="1" speed="13.89" disallow="tram rail_urban rail rail_electric rail_fast ship" oneway="0"/>
    <type id="highway.secondary" priority="11" numLanes="1" speed="27.78" disallow="tram rail_urban rail rail_electric rail_fast ship" oneway="0"/>
    <type id="highway.secondary_link" priority="6" numLanes="1" speed="22.22" disallow="tram rail_urban rail rail_electric rail_fast ship" oneway="0"/>
    <type id="highway.service" priority="1" numLanes="1" speed="5.56" allow="pedestrian delivery bicycle" oneway="0"/>
    <type id="highway.stairs" priority="1" numLanes="1" speed="1.39" allow="pedestrian" oneway="1" width="2.00"/>
    <type id="highway.step" priority="1" numLanes="1" speed="1.39" allow="pedestrian" oneway="1" width="2.00"/>
    <type id="highway.steps" priority="1" numLanes="1" speed="1.39" allow="pedestrian" oneway="1" width="2.00"/>
    <type id="highway.tertiary" priority="10" numLanes="1" speed="22.22" disallow="tram rail_urban rail rail_electric rail_fast ship" oneway="0"/>
    <type id="highway.tertiary_link" priority="5" numLanes="1" speed="22.22" disallow="tram rail_urban rail rail_electric rail_fast ship" oneway="0"/>
    <type id="highway.track" priority="1" numLanes="1" speed="5.56" allow="pedestrian motorcycle moped bicycle" oneway="0"/>
    <type id="highway.trunk" priority="13" numLanes="2" speed="27.78" disallow="pedestrian bicycle tram rail_urban rail rail_electric rail_fast ship" oneway="0"/>
    <type id="highway.trunk_link" priority="8" numLanes="1" speed="22.22" disallow="pedestrian bicycle tram rail_urban rail rail_electric rail_fast ship" oneway="0"/>
    <type id="highway.unclassified" priority="4" numLanes="1" speed="13.89" disallow="tram rail_urban rail rail_electric rail_fast ship" oneway="0"/>
    <type id="highway.unsurfaced" priority="1" numLanes="1" speed="8.33" disallow="tram rail_urban rail rail_electric rail_fast ship" oneway="0"/>
    <type id="railway.highspeed" priority="21" numLanes="1" speed="69.44" allow="rail_fast" oneway="1"/>
    <type id="railway.light_rail" priority="19" numLanes="1" speed="27.78" allow="rail_urban" oneway="1"/>
    <type id="railway.preserved" priority="16" numLanes="1" speed="27.78" allow="rail" oneway="1"/>
    <type id="railway.rail" priority="20" numLanes="1" speed="44.44" allow="rail" oneway="1"/>
    <type id="railway.subway" priority="18" numLanes="1" speed="27.78" allow="rail_urban" oneway="1"/>
    <type id="railway.tram" priority="17" numLanes="1" speed="13.89" allow="tram" oneway="1"/>

    <edge id=":1023990198_0" function="internal">
        <lane id=":1023990198_0_0" index="0" disallow="tram rail_urban rail rail_electric rail_fast ship" speed="5.56" length="1.12" shape="336.88,561.74 336.70,561.46 336.58,561.27 336.48,561.06 336.39,560.75"/>
    </edge>
    <edge id=":1023990198_1" function="internal">
        <lane id=":1023990198_1_0" index="0" disallow="tram rail_urban rail rail_electric rail_fast ship" speed="5.56" length="0.12" shape="339.49,559.96 339.51,559.99 339.53,560.00 339.56,560.00 339.58,560.03"/>
    </edge>
    <edge id=":1102586153_0" function="internal">
        <lane id=":1102586153_0_0" index="0" disallow="tram rail_urban rail rail_electric rail_fast ship" speed="2.78" length="9.23" shape="431.31,546.37 422.14,547.35"/>
    </edge>
    <edge id=":1102586153_1" function="internal">
        <lane id=":1102586153_1_0" index="0" allow="pedestrian delivery bicycle" speed="4.17" length="5.06" shape="431.31,546.37 428.54,546.22 426.48,545.22"/>
    </edge>
    <edge id=":1102586153_2" function="internal">
        <lane id=":1102586153_2_0" index="0" disallow="tram rail_urban rail rail_electric rail_fast ship" speed="2.78" length="2.34" shape="431.31,546.37 430.05,545.68 429.58,544.91"/>
    </edge>
    <edge id=":1102586153_9" function="internal">
        <lane id=":1102586153_9_0" index="0" allow="pedestrian delivery bicycle" speed="4.17" length="5.06" shape="426.48,545.22 425.12,543.38 424.47,540.68"/>
    </edge>
    <edge id=":1102586153_10" function="internal">
        <lane id=":1102586153_10_0" index="0" disallow="tram rail_urban rail rail_electric rail_fast ship" speed="2.78" length="2.34" shape="429.58,544.91 429.91,544.08 431.03,543.18"/>
    </edge>
    <edge id=":1102586153_3" function="internal">
        <lane id=":1102586153_3_0" index="0" allow="pedestrian delivery bicycle" speed="4.17" length="4.99" shape="427.66,540.38 427.98,541.71 428.65,542.62 429.66,543.11 431.03,543.18"/>
    </edge>
    <edge id=":1102586153_4" function="internal">
        <lane id=":1102586153_4_0" index="0" allow="pedestrian delivery bicycle" speed="4.17" length="10.08" shape="427.66,540.38 427.54,543.14 426.57,545.22 424.77,546.62 422.14,547.35"/>
    </edge>
    <edge id=":1102586153_5" function="internal">
        <lane id=":1102586153_5_0" index="0" allow="pedestrian delivery bicycle" speed="3.65" length="4.67" shape="427.66,540.38 426.98,541.65 426.22,542.12 425.38,541.80 424.47,540.68"/>
    </edge>
    <edge id=":1102586153_6" function="internal">
        <lane id=":1102586153_6_0" index="0" allow="pedestrian delivery bicycle" speed="4.17" length="5.02" shape="421.74,544.17 423.05,543.81 423.94,543.11 424.41,542.07 424.47,540.68"/>
    </edge>
    <edge id=":1102586153_7" function="internal">
        <lane id=":1102586153_7_0" index="0" disallow="tram rail_urban rail rail_electric rail_fast ship" speed="2.78" length="9.34" shape="421.74,544.17 431.03,543.18"/>
    </edge>
    <edge id=":1102586153_8" function="internal">
        <lane id=":1102586153_8_0" index="0" disallow="tram rail_urban rail rail_electric rail_fast ship" speed="2.78" length="2.34" shape="421.74,544.17 423.03,544.82 423.53,545.56"/>
    </edge>
    <edge id=":1102586153_11" function="internal">
        <lane id=":1102586153_11_0" index="0" disallow="tram rail_urban rail rail_electric rail_fast ship" speed="2.78" length="2.34" shape="423.53,545.56 423.23,546.40 422.14,547.35"/>
    </edge>
    <edge id=":1287628428_0" function="internal">
        <lane id=":1287628428_0_0" index="0" disallow="tram rail_urban rail rail_electric rail_fast ship" speed="8.33" length="0.58" shape="559.65,678.02 559.54,677.88 559.48,677.78 559.41,677.68 559.33,677.53"/>
    </edge>
    <edge id=":1287628428_1" function="internal">
        <lane id=":1287628428_1_0" index="0" disallow="tram rail_urban rail rail_electric rail_fast ship" speed="8.33" length="0.19" shape="562.11,675.94 562.13,675.99 562.16,676.03 562.18,676.06 562.21,676.11"/>
    </edge>
    <edge id=":1315120048_0" function="internal">
        <lane id=":1315120048_0_0" index="0" allow="pedestrian delivery bicycle" speed="5.56" length="4.98" shape="751.74,338.98 750.33,338.60 749.30,338.54 748.30,338.81 746.99,339.45"/>
    </edge>
    <edge id=":1315120048_1" function="internal">
        <lane id=":1315120048_1_0" index="0" allow="pedestrian delivery bicycle" speed="5.56" length="8.05" shape="751.74,338.98 749.97,338.18 748.51,336.97 747.34,335.35 746.48,333.31"/>
    </edge>
    <edge id=":1315120048_2" function="internal">
        <lane id=":1315120048_2_0" index="0" allow="pedestrian delivery bicycle" speed="3.65" length="4.67" shape="751.74,338.98 750.83,337.86 750.68,336.98 751.30,336.33 752.68,335.92"/>
    </edge>
    <edge id=":1315120048_3" function="internal">
        <lane id=":1315120048_3_0" index="0" allow="pedestrian delivery bicycle" speed="5.56" length="4.96" shape="749.53,332.34 750.07,333.65 750.78,334.68 751.65,335.44 752.68,335.92"/>
    </edge>
    <edge id=":1315120048_4" function="internal">
        <lane id=":1315120048_4_0" index="0" allow="pedestrian delivery bicycle" speed="5.56" length="8.31" shape="749.53,332.34 749.96,334.65 749.68,336.60 748.69,338.20 746.99,339.45"/>
    </edge>
    <edge id=":1315120048_5" function="internal">
        <lane id=":1315120048_5_0" index="0" allow="pedestrian delivery bicycle" speed="3.65" length="4.67" shape="749.53,332.34 749.13,333.73 748.49,334.35 747.60,334.21 746.48,333.31"/>
    </edge>
    <edge id=":1315120048_6" function="internal">
        <lane id=":1315120048_6_0" index="0" allow="pedestrian delivery bicycle" speed="4.76" length="3.77" shape="745.52,336.61 746.22,336.06 746.62,335.33 746.71,334.42 746.48,333.31"/>
    </edge>
    <edge id=":1315120048_7" function="internal">
        <lane id=":1315120048_7_0" index="0" allow="pedestrian delivery bicycle" speed="5.56" length="7.51" shape="745.52,336.61 747.50,335.65 749.01,335.24 750.56,335.35 752.68,335.92"/>
    </edge>
    <edge id=":1315120048_8" function="internal">
        <lane id=":1315120048_8_0" index="0" allow="pedestrian delivery bicycle" speed="3.65" length="4.67" shape="745.52,336.61 746.95,336.76 747.67,337.29 747.69,338.18 746.99,339.45"/>
    </edge>
    <edge id=":1315120089_0" function="internal">
        <lane id=":1315120089_0_0" index="0" allow="pedestrian delivery bicycle" speed="5.02" length="5.03" shape="698.79,367.45 697.96,366.35 696.98,365.78 695.85,365.75 694.56,366.27"/>
    </edge>
    <edge id=":1315120089_1" function="internal">
        <lane id=":1315120089_1_0" index="0" disallow="tram rail_urban rail rail_electric rail_fast ship" speed="13.89" length="9.44" shape="698.79,367.45 694.30,359.15"/>
    </edge>
    <edge id=":1315120089_2" function="internal">
        <lane id=":1315120089_2_0" index="0" allow="pedestrian delivery bicycle" speed="6.08" length="7.80" shape="698.79,367.45 697.63,364.93 697.20,362.91 697.49,361.41 698.51,360.41"/>
    </edge>
    <edge id=":1315120089_3" function="internal">
        <lane id=":1315120089_3_0" index="0" allow="pedestrian delivery bicycle" speed="5.56" length="6.25" shape="700.02,363.23 694.56,366.27"/>
    </edge>
    <edge id=":1315120089_4" function="internal">
        <lane id=":1315120089_4_0" index="0" allow="pedestrian delivery bicycle" speed="6.08" length="7.77" shape="700.02,363.23 698.63,363.53 697.21,362.95 695.77,361.49 694.30,359.15"/>
    </edge>
    <edge id=":1315120089_5" function="internal">
        <lane id=":1315120089_5_0" index="0" allow="pedestrian delivery bicycle" speed="3.65" length="4.67" shape="700.02,363.23 698.59,363.09 697.86,362.58 697.83,361.68 698.51,360.41"/>
    </edge>
    <edge id=":1315120089_6" function="internal">
        <lane id=":1315120089_6_0" index="0" allow="pedestrian delivery bicycle" speed="5.16" length="5.15" shape="692.97,363.50 694.10,362.62 694.70,361.60 694.76,360.45 694.30,359.15"/>
    </edge>
    <edge id=":1315120089_7" function="internal">
        <lane id=":1315120089_7_0" index="0" allow="pedestrian delivery bicycle" speed="5.56" length="6.34" shape="692.97,363.50 698.51,360.41"/>
    </edge>
    <edge id=":1315120089_8" function="internal">
        <lane id=":1315120089_8_0" index="0" allow="pedestrian delivery bicycle" speed="3.65" length="4.67" shape="692.97,363.50 694.41,363.59 695.15,364.08 695.20,364.98 694.56,366.27"/>
    </edge>
    <edge id=":1315120140_0" function="internal">
        <lane id=":1315120140_0_0" index="0" allow="pedestrian delivery bicycle" speed="5.56" length="5.58" shape="655.07,391.67 654.12,390.27 653.08,389.31 651.95,388.77 650.73,388.66"/>
    </edge>
    <edge id=":1315120140_1" function="internal">
        <lane id=":1315120140_1_0" index="0" allow="pedestrian delivery bicycle" speed="5.56" length="10.21" shape="655.07,391.67 654.06,389.06 654.13,386.76 655.28,384.77 657.52,383.08"/>
    </edge>
    <edge id=":1315120140_2" function="internal">
        <lane id=":1315120140_2_0" index="0" allow="pedestrian delivery bicycle" speed="3.65" length="4.67" shape="655.07,391.67 655.18,390.23 655.68,389.49 656.57,389.45 657.86,390.10"/>
    </edge>
    <edge id=":1315120140_3" function="internal">
        <lane id=":1315120140_3_0" index="0" allow="pedestrian delivery bicycle" speed="5.03" length="5.01" shape="659.06,385.89 657.96,386.71 657.40,387.69 657.36,388.82 657.86,390.10"/>
    </edge>
    <edge id=":1315120140_4" function="internal">
        <lane id=":1315120140_4_0" index="0" allow="pedestrian delivery bicycle" speed="5.56" length="8.90" shape="659.06,385.89 656.75,387.16 655.10,387.93 653.34,388.37 650.73,388.66"/>
    </edge>
    <edge id=":1315120140_5" function="internal">
        <lane id=":1315120140_5_0" index="0" allow="pedestrian delivery bicycle" speed="3.65" length="4.67" shape="659.06,385.89 657.63,385.76 656.89,385.26 656.86,384.36 657.52,383.08"/>
    </edge>
    <edge id=":1315120140_6" function="internal">
        <lane id=":1315120140_6_0" index="0" allow="pedestrian delivery bicycle" speed="5.56" length="7.56" shape="650.46,385.47 652.67,385.22 654.16,384.83 655.56,384.17 657.52,383.08"/>
    </edge>
    <edge id=":1315120140_7" function="internal">
        <lane id=":1315120140_7_0" index="0" allow="pedestrian delivery bicycle" speed="5.56" length="9.25" shape="650.46,385.47 652.64,385.62 654.60,386.43 656.34,387.93 657.86,390.10"/>
    </edge>
    <edge id=":1315120140_8" function="internal">
        <lane id=":1315120140_8_0" index="0" allow="pedestrian delivery bicycle" speed="3.65" length="4.67" shape="650.46,385.47 651.72,386.17 652.19,386.93 651.86,387.76 650.73,388.66"/>
    </edge>
    <edge id=":1316823342_0" function="internal">
        <lane id=":1316823342_0_0" index="0" disallow="tram rail_urban rail rail_electric rail_fast ship" speed="13.89" length="0.27" shape="958.88,421.52 958.65,421.66"/>
    </edge>
    <edge id=":1316823342_1" function="internal">
        <lane id=":1316823342_1_0" index="0" disallow="tram rail_urban rail rail_electric rail_fast ship" speed="13.89" length="0.31" shape="956.99,418.93 957.25,418.77"/>
    </edge>
    <edge id=":1440831298_0" function="internal">
        <lane id=":1440831298_0_0" index="0" disallow="tram rail_urban rail rail_electric rail_fast ship" speed="8.33" length="9.34" shape="712.53,208.64 704.24,212.94"/>
    </edge>
    <edge id=":1440831298_1" function="internal">
        <lane id=":1440831298_1_0" index="0" allow="pedestrian delivery bicycle" speed="6.88" length="5.06" shape="712.53,208.64 709.92,209.54 707.63,209.38"/>
    </edge>
    <edge id=":1440831298_2" function="internal">
        <lane id=":1440831298_2_0" index="0" disallow="tram rail_urban rail rail_electric rail_fast ship" speed="3.65" length="2.34" shape="712.53,208.64 711.10,208.47 710.38,207.94"/>
    </edge>
    <edge id=":1440831298_9" function="internal">
        <lane id=":1440831298_9_0" index="0" allow="pedestrian delivery bicycle" speed="6.88" length="5.07" shape="707.63,209.38 705.68,208.18 704.05,205.92"/>
    </edge>
    <edge id=":1440831298_10" function="internal">
        <lane id=":1440831298_10_0" index="0" disallow="tram rail_urban rail rail_electric rail_fast ship" speed="3.65" length="2.34" shape="710.38,207.94 710.37,207.05 711.08,205.79"/>
    </edge>
    <edge id=":1440831298_3" function="internal">
        <lane id=":1440831298_3_0" index="0" allow="pedestrian delivery bicycle" speed="5.06" length="5.01" shape="706.89,204.44 707.69,205.56 708.66,206.15 709.79,206.23 711.08,205.79"/>
    </edge>
    <edge id=":1440831298_4" function="internal">
        <lane id=":1440831298_4_0" index="0" allow="pedestrian delivery bicycle" speed="6.86" length="10.15" shape="706.89,204.44 707.82,207.06 707.69,209.35 706.49,211.31 704.24,212.94"/>
    </edge>
    <edge id=":1440831298_5" function="internal">
        <lane id=":1440831298_5_0" index="0" allow="pedestrian delivery bicycle" speed="3.65" length="4.67" shape="706.89,204.44 706.74,205.87 706.21,206.60 705.32,206.61 704.05,205.92"/>
    </edge>
    <edge id=":1440831298_6" function="internal">
        <lane id=":1440831298_6_0" index="0" allow="pedestrian delivery bicycle" speed="5.04" length="5.00" shape="702.75,210.11 703.86,209.31 704.45,208.34 704.51,207.21 704.05,205.92"/>
    </edge>
    <edge id=":1440831298_7" function="internal">
        <lane id=":1440831298_7_0" index="0" disallow="tram rail_urban rail rail_electric rail_fast ship" speed="8.33" length="9.38" shape="702.75,210.11 711.08,205.79"/>
    </edge>
    <edge id=":1440831298_8" function="internal">
        <lane id=":1440831298_8_0" index="0" disallow="tram rail_urban rail rail_electric rail_fast ship" speed="3.65" length="2.34" shape="702.75,210.11 704.19,210.26 704.91,210.78"/>
    </edge>
    <edge id=":1440831298_11" function="internal">
        <lane id=":1440831298_11_0" index="0" disallow="tram rail_urban rail rail_electric rail_fast ship" speed="3.65" length="2.34" shape="704.91,210.78 704.93,211.67 704.24,212.94"/>
    </edge>
    <edge id=":1440831309_0" function="internal">
        <lane id=":1440831309_0_0" index="0" allow="pedestrian delivery bicycle" speed="3.65" length="4.67" shape="675.31,120.60 676.16,119.44 676.98,119.07 677.76,119.51 678.51,120.74"/>
    </edge>
    <edge id=":1440890389_0" function="internal">
        <lane id=":1440890389_0_0" index="0" allow="pedestrian delivery bicycle" speed="5.56" length="8.56" shape="746.81,339.54 739.18,343.42"/>
    </edge>
    <edge id=":1440890389_1" function="internal">
        <lane id=":1440890389_1_0" index="0" allow="pedestrian delivery bicycle" speed="5.56" length="9.49" shape="746.81,339.54 744.57,340.25 742.52,339.96 740.69,338.67 739.05,336.37"/>
    </edge>
    <edge id=":1440890389_2" function="internal">
        <lane id=":1440890389_2_0" index="0" allow="pedestrian delivery bicycle" speed="3.65" length="4.67" shape="746.81,339.54 745.38,339.38 744.66,338.85 744.64,337.96 745.34,336.70"/>
    </edge>
    <edge id=":1440890389_3" function="internal">
        <lane id=":1440890389_3_0" index="0" allow="pedestrian delivery bicycle" speed="4.83" length="4.42" shape="741.86,334.84 742.66,336.02 743.51,336.73 744.40,336.95 745.34,336.70"/>
    </edge>
    <edge id=":1440890389_4" function="internal">
        <lane id=":1440890389_4_0" index="0" allow="pedestrian delivery bicycle" speed="5.56" length="10.34" shape="741.86,334.84 742.86,337.51 742.74,339.82 741.52,341.80 739.18,343.42"/>
    </edge>
    <edge id=":1440890389_5" function="internal">
        <lane id=":1440890389_5_0" index="0" allow="pedestrian delivery bicycle" speed="3.65" length="4.67" shape="741.86,334.84 741.74,336.27 741.23,337.01 740.33,337.04 739.05,336.37"/>
    </edge>
    <edge id=":1440890389_6" function="internal">
        <lane id=":1440890389_6_0" index="0" allow="pedestrian delivery bicycle" speed="5.00" length="5.04" shape="737.74,340.56 738.89,339.77 739.48,338.80 739.54,337.67 739.05,336.37"/>
    </edge>
    <edge id=":1440890389_7" function="internal">
        <lane id=":1440890389_7_0" index="0" allow="pedestrian delivery bicycle" speed="5.56" length="8.52" shape="737.74,340.56 745.34,336.70"/>
    </edge>
    <edge id=":1440890389_8" function="internal">
        <lane id=":1440890389_8_0" index="0" allow="pedestrian delivery bicycle" speed="3.65" length="4.67" shape="737.74,340.56 739.18,340.74 739.89,341.27 739.89,342.17 739.18,343.42"/>
    </edge>
    <edge id=":1440890411_0" function="internal">
        <lane id=":1440890411_0_0" index="0" allow="pedestrian delivery bicycle" speed="4.95" length="5.11" shape="805.19,298.42 804.33,297.29 803.33,296.75 802.20,296.79 800.92,297.42"/>
    </edge>
    <edge id=":1440890411_1" function="internal">
        <lane id=":1440890411_1_0" index="0" allow="pedestrian delivery bicycle" speed="5.56" length="9.20" shape="805.19,298.42 804.06,295.95 803.53,293.66 803.60,291.56 804.27,289.65"/>
    </edge>
    <edge id=":1440890411_2" function="internal">
        <lane id=":1440890411_2_0" index="0" allow="pedestrian delivery bicycle" speed="3.65" length="4.67" shape="805.19,298.42 805.31,296.98 805.81,296.25 806.70,296.20 807.99,296.86"/>
    </edge>
    <edge id=":1440890411_3" function="internal">
        <lane id=":1440890411_3_0" index="0" allow="pedestrian delivery bicycle" speed="5.56" length="6.00" shape="807.09,291.16 806.73,292.30 806.76,293.63 807.18,295.15 807.99,296.86"/>
    </edge>
    <edge id=":1440890411_4" function="internal">
        <lane id=":1440890411_4_0" index="0" allow="pedestrian delivery bicycle" speed="5.56" length="8.95" shape="807.09,291.16 805.76,293.42 804.59,294.81 803.12,295.94 800.92,297.42"/>
    </edge>
    <edge id=":1440890411_5" function="internal">
        <lane id=":1440890411_5_0" index="0" allow="pedestrian delivery bicycle" speed="3.65" length="4.67" shape="807.09,291.16 805.82,291.84 804.93,291.82 804.41,291.09 804.27,289.65"/>
    </edge>
    <edge id=":1440890411_6" function="internal">
        <lane id=":1440890411_6_0" index="0" allow="pedestrian delivery bicycle" speed="5.56" length="7.40" shape="799.11,294.78 800.95,293.56 802.18,292.65 803.16,291.52 804.27,289.65"/>
    </edge>
    <edge id=":1440890411_7" function="internal">
        <lane id=":1440890411_7_0" index="0" allow="pedestrian delivery bicycle" speed="5.56" length="10.62" shape="799.11,294.78 801.76,293.48 804.12,293.39 806.20,294.52 807.99,296.86"/>
    </edge>
    <edge id=":1440890411_8" function="internal">
        <lane id=":1440890411_8_0" index="0" allow="pedestrian delivery bicycle" speed="3.65" length="4.67" shape="799.11,294.78 800.56,294.76 801.34,295.20 801.46,296.08 800.92,297.42"/>
    </edge>
    <edge id=":1440890415_0" function="internal">
        <lane id=":1440890415_0_0" index="0" allow="pedestrian delivery bicycle" speed="5.23" length="5.23" shape="715.73,269.82 714.90,268.57 713.91,267.86 712.77,267.66 711.46,268.00"/>
    </edge>
    <edge id=":1440890415_1" function="internal">
        <lane id=":1440890415_1_0" index="0" allow="pedestrian delivery bicycle" speed="5.56" length="10.43" shape="715.73,269.82 714.82,267.09 715.03,264.76 716.36,262.84 718.81,261.33"/>
    </edge>
    <edge id=":1440890415_2" function="internal">
        <lane id=":1440890415_2_0" index="0" allow="pedestrian delivery bicycle" speed="3.65" length="4.67" shape="715.73,269.82 715.91,268.39 716.45,267.67 717.34,267.67 718.60,268.38"/>
    </edge>
    <edge id=":1440890415_3" function="internal">
        <lane id=":1440890415_3_0" index="0" allow="pedestrian delivery bicycle" speed="4.98" length="5.06" shape="720.09,264.26 718.90,264.99 718.25,265.93 718.15,267.06 718.60,268.38"/>
    </edge>
    <edge id=":1440890415_4" function="internal">
        <lane id=":1440890415_4_0" index="0" allow="pedestrian delivery bicycle" speed="5.56" length="9.40" shape="720.09,264.26 711.46,268.00"/>
    </edge>
    <edge id=":1440890415_5" function="internal">
        <lane id=":1440890415_5_0" index="0" allow="pedestrian delivery bicycle" speed="3.65" length="4.67" shape="720.09,264.26 718.67,264.01 717.98,263.43 718.03,262.54 718.81,261.33"/>
    </edge>
    <edge id=":1440890415_6" function="internal">
        <lane id=":1440890415_6_0" index="0" allow="pedestrian delivery bicycle" speed="5.56" length="9.38" shape="710.20,265.06 718.81,261.33"/>
    </edge>
    <edge id=":1440890415_7" function="internal">
        <lane id=":1440890415_7_0" index="0" allow="pedestrian delivery bicycle" speed="5.56" length="10.17" shape="710.20,265.06 712.80,264.37 715.07,264.70 717.00,266.03 718.60,268.38"/>
    </edge>
    <edge id=":1440890415_8" function="internal">
        <lane id=":1440890415_8_0" index="0" allow="pedestrian delivery bicycle" speed="3.65" length="4.67" shape="710.20,265.06 711.62,265.32 712.30,265.89 712.25,266.79 711.46,268.00"/>
    </edge>
    <edge id=":1440890428_0" function="internal">
        <lane id=":1440890428_0_0" index="0" allow="pedestrian delivery bicycle" speed="5.56" length="4.32" shape="788.17,244.83 787.52,243.73 786.97,243.04 786.29,242.47 785.25,241.72"/>
    </edge>
    <edge id=":1440890428_1" function="internal">
        <lane id=":1440890428_1_0" index="0" allow="pedestrian delivery bicycle" speed="3.65" length="2.34" shape="788.17,244.83 788.29,243.39 788.80,242.65"/>
    </edge>
    <edge id=":1440890428_4" function="internal">
        <lane id=":1440890428_4_0" index="0" allow="pedestrian delivery bicycle" speed="3.65" length="2.34" shape="788.80,242.65 789.70,242.62 790.97,243.29"/>
    </edge>
    <edge id=":1440890428_2" function="internal">
        <lane id=":1440890428_2_0" index="0" allow="pedestrian delivery bicycle" speed="5.56" length="5.74" shape="787.13,239.13 788.51,240.14 789.40,240.91 790.12,241.83 790.97,243.29"/>
    </edge>
    <edge id=":1440890428_3" function="internal">
        <lane id=":1440890428_3_0" index="0" allow="pedestrian delivery bicycle" speed="3.65" length="2.34" shape="787.13,239.13 787.63,240.49 787.49,241.37"/>
    </edge>
    <edge id=":1440890428_5" function="internal">
        <lane id=":1440890428_5_0" index="0" allow="pedestrian delivery bicycle" speed="3.65" length="2.34" shape="787.49,241.37 786.69,241.78 785.25,241.72"/>
    </edge>
    <edge id=":1440890431_0" function="internal">
        <lane id=":1440890431_0_0" index="0" allow="pedestrian delivery bicycle" speed="5.56" length="6.11" shape="757.70,328.95 755.99,327.84 754.48,327.25 753.19,327.16 752.11,327.58"/>
    </edge>
    <edge id=":1440890431_1" function="internal">
        <lane id=":1440890431_1_0" index="0" allow="pedestrian delivery bicycle" speed="5.56" length="11.60" shape="757.70,328.95 755.35,326.61 754.56,324.25 755.31,321.88 757.61,319.50"/>
    </edge>
    <edge id=":1440890431_2" function="internal">
        <lane id=":1440890431_2_0" index="0" allow="pedestrian delivery bicycle" speed="3.65" length="4.67" shape="757.70,328.95 757.22,327.59 757.38,326.71 758.18,326.31 759.62,326.39"/>
    </edge>
    <edge id=":1440890431_3" function="internal">
        <lane id=":1440890431_3_0" index="0" allow="pedestrian delivery bicycle" speed="4.80" length="5.36" shape="759.58,322.02 758.51,323.12 758.17,324.22 758.53,325.31 759.62,326.39"/>
    </edge>
    <edge id=":1440890431_4" function="internal">
        <lane id=":1440890431_4_0" index="0" allow="pedestrian delivery bicycle" speed="5.56" length="9.30" shape="759.58,322.02 752.11,327.58"/>
    </edge>
    <edge id=":1440890431_5" function="internal">
        <lane id=":1440890431_5_0" index="0" allow="pedestrian delivery bicycle" speed="3.65" length="4.67" shape="759.58,322.02 758.14,322.13 757.33,321.74 757.16,320.86 757.61,319.50"/>
    </edge>
    <edge id=":1440890431_6" function="internal">
        <lane id=":1440890431_6_0" index="0" allow="pedestrian delivery bicycle" speed="5.56" length="9.13" shape="750.29,324.95 757.61,319.50"/>
    </edge>
    <edge id=":1440890431_7" function="internal">
        <lane id=":1440890431_7_0" index="0" allow="pedestrian delivery bicycle" speed="5.56" length="10.11" shape="750.29,324.95 752.31,324.04 754.54,323.98 756.98,324.76 759.62,326.39"/>
    </edge>
    <edge id=":1440890431_8" function="internal">
        <lane id=":1440890431_8_0" index="0" allow="pedestrian delivery bicycle" speed="3.65" length="4.67" shape="750.29,324.95 751.73,324.92 752.52,325.35 752.64,326.24 752.11,327.58"/>
    </edge>
    <edge id=":1440890437_0" function="internal">
        <lane id=":1440890437_0_0" index="0" allow="pedestrian delivery bicycle" speed="5.28" length="5.22" shape="725.89,265.38 725.02,264.16 724.02,263.46 722.87,263.28 721.57,263.61"/>
    </edge>