<?xml version="1.0" encoding="UTF-8"?>

<!-- generated on Mi 10 Feb 2021 17:44:46 CET by Eclipse SUMO netedit Version 1.8.0
<configuration xmlns:xsi="http://www.w3.org/2001/XMLSchema-instance" xsi:noNamespaceSchemaLocation="http://sumo.dlr.de/xsd/netconvertConfiguration.xsd">

    <input>
        <sumo-net-file value="/home/aslan/murmel_ws/src/iotcom/scripts/Simulation/VerificationSim/Map/mapSimulation.net.xml"/>
    </input>

    <output>
        <output-file value="/home/aslan/murmel_ws/src/iotcom/scripts/Simulation/VerificationSim/Map/mapSimulation.net.xml"/>
    </output>

    <processing>
        <geometry.min-radius.fix.railways value="false"/>
        <geometry.max-grade.fix value="false"/>
        <offset.disable-normalization value="true"/>
        <lefthand value="false"/>
    </processing>

    <junctions>
        <no-turnarounds value="true"/>
        <junctions.corner-detail value="5"/>
        <junctions.limit-turn-speed value="-1"/>
        <rectangular-lane-cut value="false"/>
    </junctions>

    <pedestrian>
        <walkingareas value="false"/>
    </pedestrian>

    <report>
        <aggregate-warnings value="5"/>
    </report>

</configuration>
-->

<net version="1.6" junctionCornerDetail="5" xmlns:xsi="http://www.w3.org/2001/XMLSchema-instance" xsi:noNamespaceSchemaLocation="http://sumo.dlr.de/xsd/net_file.xsd">

    <location netOffset="-385359.41,-5819427.71" convBoundary="0.00,0.00,1320.73,739.90" origBoundary="13.310525,52.511607,13.335429,52.520621" projParameter="+proj=utm +zone=33 +ellps=WGS84 +datum=WGS84 +units=m +no_defs"/>

    <type id="highway.bridleway" priority="1" numLanes="1" speed="2.78" allow="pedestrian" oneway="1" width="2.00"/>
    <type id="highway.bus_guideway" priority="1" numLanes="1" speed="27.78" allow="bus" oneway="1"/>
    <type id="highway.cycleway" priority="1" numLanes="1" speed="8.33" allow="bicycle" oneway="1" width="1.00"/>
    <type id="highway.footway" priority="1" numLanes="1" speed="2.78" allow="pedestrian" oneway="1" width="2.00"/>
    <type id="highway.ford" priority="1" numLanes="1" speed="2.78" allow="army" oneway="1"/>
    <type id="highway.living_street" priority="2" numLanes="1" speed="2.78" disallow="tram rail_urban rail rail_electric ship" oneway="1"/>
    <type id="highway.motorway" priority="14" numLanes="2" speed="39.44" allow="private emergency authority army vip passenger hov taxi bus coach delivery truck trailer motorcycle evehicle custom1 custom2" oneway="1"/>
    <type id="highway.motorway_link" priority="9" numLanes="1" speed="22.22" allow="private emergency authority army vip passenger hov taxi bus coach delivery truck trailer motorcycle evehicle custom1 custom2" oneway="1"/>
    <type id="highway.path" priority="1" numLanes="1" speed="2.78" allow="pedestrian bicycle" oneway="1" width="2.00"/>
    <type id="highway.pedestrian" priority="1" numLanes="1" speed="2.78" allow="pedestrian" oneway="1" width="2.00"/>
    <type id="highway.primary" priority="12" numLanes="2" speed="27.78" disallow="tram rail_urban rail rail_electric ship" oneway="1"/>
    <type id="highway.primary_link" priority="7" numLanes="1" speed="22.22" disallow="tram rail_urban rail rail_electric ship" oneway="1"/>
    <type id="highway.raceway" priority="15" numLanes="2" speed="83.33" allow="vip" oneway="1"/>
    <type id="highway.residential" priority="3" numLanes="1" speed="13.89" disallow="tram rail_urban rail rail_electric ship" oneway="1"/>
    <type id="highway.secondary" priority="11" numLanes="1" speed="27.78" disallow="tram rail_urban rail rail_electric ship" oneway="1"/>
    <type id="highway.secondary_link" priority="6" numLanes="1" speed="22.22" disallow="tram rail_urban rail rail_electric ship" oneway="1"/>
    <type id="highway.service" priority="1" numLanes="1" speed="5.56" allow="pedestrian delivery bicycle" oneway="1"/>
    <type id="highway.stairs" priority="1" numLanes="1" speed="1.39" allow="pedestrian" oneway="1" width="2.00"/>
    <type id="highway.step" priority="1" numLanes="1" speed="1.39" allow="pedestrian" oneway="1" width="2.00"/>
    <type id="highway.steps" priority="1" numLanes="1" speed="1.39" allow="pedestrian" oneway="1" width="2.00"/>
    <type id="highway.tertiary" priority="10" numLanes="1" speed="22.22" disallow="tram rail_urban rail rail_electric ship" oneway="1"/>
    <type id="highway.tertiary_link" priority="5" numLanes="1" speed="22.22" disallow="tram rail_urban rail rail_electric ship" oneway="1"/>
    <type id="highway.track" priority="1" numLanes="1" speed="5.56" allow="pedestrian motorcycle moped bicycle" oneway="1"/>
    <type id="highway.trunk" priority="13" numLanes="2" speed="27.78" disallow="pedestrian bicycle tram rail_urban rail rail_electric ship" oneway="1"/>
    <type id="highway.trunk_link" priority="8" numLanes="1" speed="22.22" disallow="pedestrian bicycle tram rail_urban rail rail_electric ship" oneway="1"/>
    <type id="highway.unclassified" priority="4" numLanes="1" speed="13.89" disallow="tram rail_urban rail rail_electric ship" oneway="1"/>
    <type id="highway.unsurfaced" priority="1" numLanes="1" speed="8.33" disallow="tram rail_urban rail rail_electric ship" oneway="1"/>
    <type id="railway.highspeed" priority="21" numLanes="1" speed="69.44" allow="rail_electric" oneway="1"/>
    <type id="railway.light_rail" priority="19" numLanes="1" speed="27.78" allow="rail_urban" oneway="1"/>
    <type id="railway.preserved" priority="16" numLanes="1" speed="27.78" allow="rail" oneway="1"/>
    <type id="railway.rail" priority="20" numLanes="1" speed="44.44" allow="rail" oneway="1"/>
    <type id="railway.subway" priority="18" numLanes="1" speed="27.78" allow="rail_urban" oneway="1"/>
    <type id="railway.tram" priority="17" numLanes="1" speed="13.89" allow="tram" oneway="1"/>

    <edge id=":1023990198_0" function="internal">
        <lane id=":1023990198_0_0" index="0" disallow="tram rail_urban rail rail_electric rail_fast ship" speed="5.55" length="1.12" shape="336.88,561.74 336.70,561.46 336.58,561.27 336.48,561.06 336.39,560.74"/>
    </edge>
    <edge id=":1023990198_1" function="internal">
        <lane id=":1023990198_1_0" index="0" disallow="tram rail_urban rail rail_electric rail_fast ship" speed="5.55" length="0.12" shape="339.49,559.96 339.51,559.98 339.53,559.99 339.56,560.00 339.58,560.03"/>
    </edge>
    <edge id=":1102586153_0" function="internal">
        <lane id=":1102586153_0_0" index="0" disallow="tram rail_urban rail rail_electric rail_fast ship" speed="2.78" length="9.23" shape="431.31,546.37 422.14,547.35"/>
    </edge>
    <edge id=":1102586153_1" function="internal">
        <lane id=":1102586153_1_0" index="0" allow="pedestrian delivery bicycle" speed="4.17" length="5.06" shape="431.31,546.37 428.54,546.22 426.48,545.23"/>
    </edge>
    <edge id=":1102586153_2" function="internal">
        <lane id=":1102586153_2_0" index="0" disallow="tram rail_urban rail rail_electric rail_fast ship" speed="2.78" length="2.34" shape="431.31,546.37 430.05,545.68 429.58,544.92"/>
    </edge>
    <edge id=":1102586153_9" function="internal">
        <lane id=":1102586153_9_0" index="0" allow="pedestrian delivery bicycle" speed="4.17" length="5.06" shape="426.48,545.23 425.12,543.38 424.47,540.68"/>
    </edge>
    <edge id=":1102586153_10" function="internal">
        <lane id=":1102586153_10_0" index="0" disallow="tram rail_urban rail rail_electric rail_fast ship" speed="2.78" length="2.34" shape="429.58,544.92 429.90,544.08 431.03,543.18"/>
    </edge>
    <edge id=":1102586153_3" function="internal">
        <lane id=":1102586153_3_0" index="0" allow="pedestrian delivery bicycle" speed="4.17" length="4.99" shape="427.66,540.38 427.98,541.71 428.65,542.62 429.66,543.11 431.03,543.18"/>
    </edge>
    <edge id=":1102586153_4" function="internal">
        <lane id=":1102586153_4_0" index="0" allow="pedestrian delivery bicycle" speed="4.17" length="10.08" shape="427.66,540.38 427.53,543.14 426.57,545.22 424.77,546.63 422.14,547.35"/>
    </edge>
    <edge id=":1102586153_5" function="internal">
        <lane id=":1102586153_5_0" index="0" allow="pedestrian delivery bicycle" speed="5.56" length="4.67" shape="427.66,540.38 426.97,541.65 426.22,542.12 425.38,541.80 424.47,540.68"/>
    </edge>
    <edge id=":1102586153_6" function="internal">
        <lane id=":1102586153_6_0" index="0" allow="pedestrian delivery bicycle" speed="4.17" length="5.02" shape="421.74,544.17 423.05,543.81 423.94,543.11 424.41,542.07 424.47,540.68"/>
    </edge>
    <edge id=":1102586153_7" function="internal">
        <lane id=":1102586153_7_0" index="0" disallow="tram rail_urban rail rail_electric rail_fast ship" speed="2.78" length="9.34" shape="421.74,544.17 431.03,543.18"/>
    </edge>
    <edge id=":1102586153_8" function="internal">
        <lane id=":1102586153_8_0" index="0" disallow="tram rail_urban rail rail_electric rail_fast ship" speed="2.78" length="2.34" shape="421.74,544.17 423.03,544.82 423.52,545.56"/>
    </edge>
    <edge id=":1102586153_11" function="internal">
        <lane id=":1102586153_11_0" index="0" disallow="tram rail_urban rail rail_electric rail_fast ship" speed="2.78" length="2.34" shape="423.52,545.56 423.23,546.41 422.14,547.35"/>
    </edge>
    <edge id=":1287628428_0" function="internal">
        <lane id=":1287628428_0_0" index="0" disallow="tram rail_urban rail rail_electric rail_fast ship" speed="8.33" length="0.59" shape="559.65,678.02 559.54,677.88 559.47,677.79 559.41,677.68 559.32,677.53"/>
    </edge>
    <edge id=":1287628428_1" function="internal">
        <lane id=":1287628428_1_0" index="0" disallow="tram rail_urban rail rail_electric rail_fast ship" speed="8.33" length="0.20" shape="562.10,675.95 562.13,676.00 562.15,676.03 562.17,676.06 562.21,676.11"/>
    </edge>
    <edge id=":1315120048_0" function="internal">
        <lane id=":1315120048_0_0" index="0" allow="pedestrian delivery bicycle" speed="5.56" length="4.98" shape="751.73,338.97 750.33,338.60 749.30,338.53 748.30,338.81 746.99,339.44"/>
    </edge>
    <edge id=":1315120048_1" function="internal">
        <lane id=":1315120048_1_0" index="0" allow="pedestrian delivery bicycle" speed="5.56" length="8.04" shape="751.73,338.97 749.97,338.18 748.50,336.97 747.34,335.35 746.48,333.31"/>
    </edge>
    <edge id=":1315120048_2" function="internal">
        <lane id=":1315120048_2_0" index="0" allow="pedestrian delivery bicycle" speed="5.56" length="4.67" shape="751.73,338.97 750.82,337.86 750.67,336.97 751.29,336.33 752.67,335.92"/>
    </edge>
    <edge id=":1315120048_3" function="internal">
        <lane id=":1315120048_3_0" index="0" allow="pedestrian delivery bicycle" speed="5.56" length="4.95" shape="749.53,332.34 750.07,333.65 750.77,334.68 751.64,335.43 752.67,335.92"/>
    </edge>
    <edge id=":1315120048_4" function="internal">
        <lane id=":1315120048_4_0" index="0" allow="pedestrian delivery bicycle" speed="5.56" length="8.31" shape="749.53,332.34 749.96,334.65 749.68,336.60 748.69,338.20 746.99,339.44"/>
    </edge>
    <edge id=":1315120048_5" function="internal">
        <lane id=":1315120048_5_0" index="0" allow="pedestrian delivery bicycle" speed="5.56" length="4.67" shape="749.53,332.34 749.13,333.73 748.48,334.35 747.60,334.21 746.48,333.31"/>
    </edge>
    <edge id=":1315120048_6" function="internal">
        <lane id=":1315120048_6_0" index="0" allow="pedestrian delivery bicycle" speed="5.56" length="3.77" shape="745.52,336.60 746.22,336.06 746.62,335.33 746.70,334.42 746.48,333.31"/>
    </edge>
    <edge id=":1315120048_7" function="internal">
        <lane id=":1315120048_7_0" index="0" allow="pedestrian delivery bicycle" speed="5.56" length="7.51" shape="745.52,336.60 747.50,335.65 749.00,335.24 750.56,335.34 752.67,335.92"/>
    </edge>
    <edge id=":1315120048_8" function="internal">
        <lane id=":1315120048_8_0" index="0" allow="pedestrian delivery bicycle" speed="5.56" length="4.67" shape="745.52,336.60 746.95,336.76 747.67,337.29 747.69,338.18 746.99,339.44"/>
    </edge>
    <edge id=":1315120089_0" function="internal">
        <lane id=":1315120089_0_0" index="0" allow="pedestrian delivery bicycle" speed="9.72" length="8.82" shape="699.92,369.53 698.47,367.59 696.75,366.60 694.76,366.55 692.51,367.46"/>
    </edge>
    <edge id=":1315120089_1" function="internal">
        <lane id=":1315120089_1_0" index="0" disallow="tram rail_urban rail rail_electric rail_fast ship" speed="13.89" length="14.12" shape="699.92,369.53 693.21,357.11"/>
    </edge>
    <edge id=":1315120089_2" function="internal">
        <lane id=":1315120089_2_0" index="0" allow="pedestrian delivery bicycle" speed="9.72" length="9.96" shape="699.92,369.53 698.27,366.10 697.48,363.43 697.56,361.54 698.51,360.41"/>
    </edge>
    <edge id=":1315120089_3" function="internal">
        <lane id=":1315120089_3_0" index="0" allow="pedestrian delivery bicycle" speed="5.56" length="8.62" shape="700.02,363.23 692.51,367.46"/>
    </edge>
    <edge id=":1315120089_4" function="internal">
        <lane id=":1315120089_4_0" index="0" allow="pedestrian delivery bicycle" speed="9.72" length="9.89" shape="700.02,363.23 698.56,363.40 696.94,362.44 695.15,360.34 693.21,357.11"/>
    </edge>
    <edge id=":1315120089_5" function="internal">
        <lane id=":1315120089_5_0" index="0" allow="pedestrian delivery bicycle" speed="5.56" length="4.67" shape="700.02,363.23 698.58,363.09 697.85,362.58 697.83,361.68 698.51,360.41"/>
    </edge>
    <edge id=":1315120089_6" function="internal">
        <lane id=":1315120089_6_0" index="0" disallow="tram rail_urban rail rail_electric rail_fast ship" speed="9.72" length="8.96" shape="690.91,364.68 692.87,363.16 693.91,361.39 694.02,359.37 693.21,357.11"/>
    </edge>
    <edge id=":1315120089_7" function="internal">
        <lane id=":1315120089_7_0" index="0" allow="pedestrian delivery bicycle" speed="5.56" length="8.72" shape="690.91,364.68 698.51,360.41"/>
    </edge>
    <edge id=":1315120089_8" function="internal">
        <lane id=":1315120089_8_0" index="0" allow="pedestrian delivery bicycle" speed="5.56" length="4.67" shape="690.91,364.68 692.35,364.78 693.10,365.27 693.15,366.16 692.51,367.46"/>
    </edge>
    <edge id=":1315120140_0" function="internal">
        <lane id=":1315120140_0_0" index="0" allow="pedestrian delivery bicycle" speed="5.56" length="5.58" shape="655.07,391.67 654.12,390.27 653.08,389.30 651.95,388.77 650.74,388.66"/>
    </edge>
    <edge id=":1315120140_1" function="internal">
        <lane id=":1315120140_1_0" index="0" allow="pedestrian delivery bicycle" speed="5.56" length="10.21" shape="655.07,391.67 654.06,389.06 654.13,386.75 655.29,384.76 657.53,383.08"/>
    </edge>
    <edge id=":1315120140_2" function="internal">
        <lane id=":1315120140_2_0" index="0" allow="pedestrian delivery bicycle" speed="5.56" length="4.67" shape="655.07,391.67 655.18,390.23 655.68,389.49 656.57,389.45 657.86,390.10"/>
    </edge>
    <edge id=":1315120140_3" function="internal">
        <lane id=":1315120140_3_0" index="0" allow="pedestrian delivery bicycle" speed="5.56" length="5.01" shape="659.07,385.89 657.97,386.71 657.40,387.69 657.36,388.82 657.86,390.10"/>
    </edge>
    <edge id=":1315120140_4" function="internal">
        <lane id=":1315120140_4_0" index="0" allow="pedestrian delivery bicycle" speed="5.56" length="8.90" shape="659.07,385.89 656.76,387.16 655.10,387.92 653.34,388.37 650.74,388.66"/>
    </edge>
    <edge id=":1315120140_5" function="internal">
        <lane id=":1315120140_5_0" index="0" allow="pedestrian delivery bicycle" speed="5.56" length="4.67" shape="659.07,385.89 657.63,385.76 656.89,385.25 656.86,384.36 657.53,383.08"/>
    </edge>
    <edge id=":1315120140_6" function="internal">
        <lane id=":1315120140_6_0" index="0" speed="5.56" length="7.56" shape="650.46,385.48 652.67,385.22 654.16,384.83 655.56,384.17 657.53,383.08"/>
    </edge>
    <edge id=":1315120140_7" function="internal">
        <lane id=":1315120140_7_0" index="0" allow="pedestrian delivery bicycle" speed="5.56" length="9.26" shape="650.46,385.48 652.64,385.61 654.60,386.43 656.34,387.93 657.86,390.10"/>
    </edge>
    <edge id=":1315120140_8" function="internal">
        <lane id=":1315120140_8_0" index="0" allow="pedestrian delivery bicycle" speed="5.56" length="4.67" shape="650.46,385.48 651.72,386.17 652.19,386.93 651.86,387.76 650.74,388.66"/>
    </edge>
    <edge id=":1316823342_0" function="internal">
        <lane id=":1316823342_0_0" index="0" disallow="tram rail_urban rail rail_electric rail_fast ship" speed="13.89" length="0.27" shape="958.88,421.52 958.65,421.66"/>
    </edge>
    <edge id=":1316823342_1" function="internal">
        <lane id=":1316823342_1_0" index="0" disallow="tram rail_urban rail rail_electric rail_fast ship" speed="13.89" length="0.31" shape="956.98,418.93 957.25,418.77"/>
    </edge>
    <edge id=":1440831298_0" function="internal">
        <lane id=":1440831298_0_0" index="0" disallow="tram rail_urban rail rail_electric rail_fast ship" speed="8.33" length="9.34" shape="712.53,208.64 704.24,212.94"/>
    </edge>
    <edge id=":1440831298_1" function="internal">
        <lane id=":1440831298_1_0" index="0" allow="pedestrian delivery bicycle" speed="6.95" length="5.06" shape="712.53,208.64 709.92,209.54 707.63,209.38"/>
    </edge>
    <edge id=":1440831298_2" function="internal">
        <lane id=":1440831298_2_0" index="0" disallow="tram rail_urban rail rail_electric rail_fast ship" speed="8.33" length="2.34" shape="712.53,208.64 711.10,208.48 710.38,207.94"/>
    </edge>
    <edge id=":1440831298_9" function="internal">
        <lane id=":1440831298_9_0" index="0" allow="pedestrian delivery bicycle" speed="6.95" length="5.07" shape="707.63,209.38 705.68,208.18 704.05,205.92"/>
    </edge>
    <edge id=":1440831298_10" function="internal">
        <lane id=":1440831298_10_0" index="0" disallow="tram rail_urban rail rail_electric rail_fast ship" speed="8.33" length="2.34" shape="710.38,207.94 710.37,207.05 711.08,205.79"/>
    </edge>
    <edge id=":1440831298_3" function="internal">
        <lane id=":1440831298_3_0" index="0" allow="pedestrian delivery bicycle" speed="6.95" length="5.01" shape="706.89,204.44 707.69,205.56 708.66,206.16 709.79,206.23 711.08,205.79"/>
    </edge>
    <edge id=":1440831298_4" function="internal">
        <lane id=":1440831298_4_0" index="0" allow="pedestrian delivery bicycle" speed="6.95" length="10.15" shape="706.89,204.44 707.82,207.06 707.69,209.35 706.49,211.31 704.24,212.94"/>
    </edge>
    <edge id=":1440831298_5" function="internal">
        <lane id=":1440831298_5_0" index="0" allow="pedestrian delivery bicycle" speed="5.56" length="4.67" shape="706.89,204.44 706.74,205.87 706.21,206.60 705.32,206.62 704.05,205.92"/>
    </edge>
    <edge id=":1440831298_6" function="internal">
        <lane id=":1440831298_6_0" index="0" allow="pedestrian delivery bicycle" speed="6.95" length="5.00" shape="702.75,210.11 703.86,209.31 704.45,208.34 704.51,207.21 704.05,205.92"/>
    </edge>
    <edge id=":1440831298_7" function="internal">
        <lane id=":1440831298_7_0" index="0" disallow="tram rail_urban rail rail_electric rail_fast ship" speed="8.33" length="9.38" shape="702.75,210.11 711.08,205.79"/>
    </edge>
    <edge id=":1440831298_8" function="internal">
        <lane id=":1440831298_8_0" index="0" disallow="tram rail_urban rail rail_electric rail_fast ship" speed="8.33" length="2.34" shape="702.75,210.11 704.19,210.26 704.91,210.78"/>
    </edge>
    <edge id=":1440831298_11" function="internal">
        <lane id=":1440831298_11_0" index="0" disallow="tram rail_urban rail rail_electric rail_fast ship" speed="8.33" length="2.34" shape="704.91,210.78 704.93,211.68 704.24,212.94"/>
    </edge>
    <edge id=":1440831309_0" function="internal">
        <lane id=":1440831309_0_0" index="0" allow="pedestrian delivery bicycle" speed="5.56" length="4.67" shape="675.31,120.60 676.16,119.44 676.98,119.07 677.76,119.51 678.51,120.74"/>
    </edge>
    <edge id=":1440890389_0" function="internal">
        <lane id=":1440890389_0_0" index="0" allow="pedestrian delivery bicycle" speed="5.56" length="8.56" shape="746.81,339.54 739.18,343.42"/>
    </edge>
    <edge id=":1440890389_1" function="internal">
        <lane id=":1440890389_1_0" index="0" allow="pedestrian delivery bicycle" speed="5.56" length="9.48" shape="746.81,339.54 744.57,340.25 742.53,339.96 740.69,338.67 739.06,336.37"/>
    </edge>
    <edge id=":1440890389_2" function="internal">
        <lane id=":1440890389_2_0" index="0" allow="pedestrian delivery bicycle" speed="5.56" length="4.67" shape="746.81,339.54 745.38,339.38 744.65,338.85 744.64,337.96 745.34,336.70"/>
    </edge>
    <edge id=":1440890389_3" function="internal">
        <lane id=":1440890389_3_0" index="0" allow="pedestrian delivery bicycle" speed="5.56" length="4.42" shape="741.86,334.84 742.67,336.02 743.51,336.73 744.40,336.95 745.34,336.70"/>
    </edge>
    <edge id=":1440890389_4" function="internal">
        <lane id=":1440890389_4_0" index="0" allow="pedestrian delivery bicycle" speed="5.56" length="10.34" shape="741.86,334.84 742.86,337.50 742.75,339.82 741.52,341.79 739.18,343.42"/>
    </edge>
    <edge id=":1440890389_5" function="internal">
        <lane id=":1440890389_5_0" index="0" allow="pedestrian delivery bicycle" speed="5.56" length="4.67" shape="741.86,334.84 741.74,336.27 741.23,337.01 740.33,337.04 739.06,336.37"/>
    </edge>
    <edge id=":1440890389_6" function="internal">
        <lane id=":1440890389_6_0" index="0" allow="pedestrian delivery bicycle" speed="5.56" length="5.04" shape="737.75,340.56 738.89,339.76 739.49,338.80 739.54,337.67 739.06,336.37"/>
    </edge>
    <edge id=":1440890389_7" function="internal">
        <lane id=":1440890389_7_0" index="0" allow="pedestrian delivery bicycle" speed="5.56" length="8.52" shape="737.75,340.56 745.34,336.70"/>
    </edge>
    <edge id=":1440890389_8" function="internal">
        <lane id=":1440890389_8_0" index="0" allow="pedestrian delivery bicycle" speed="5.56" length="4.67" shape="737.75,340.56 739.18,340.73 739.89,341.27 739.89,342.16 739.18,343.42"/>
    </edge>
    <edge id=":1440890411_0" function="internal">
        <lane id=":1440890411_0_0" index="0" allow="pedestrian delivery bicycle" speed="5.56" length="5.11" shape="805.19,298.42 804.33,297.29 803.33,296.75 802.20,296.79 800.92,297.42"/>
    </edge>
    <edge id=":1440890411_1" function="internal">
        <lane id=":1440890411_1_0" index="0" allow="pedestrian delivery bicycle" speed="5.56" length="9.20" shape="805.19,298.42 804.06,295.95 803.53,293.66 803.60,291.56 804.27,289.65"/>
    </edge>
    <edge id=":1440890411_2" function="internal">
        <lane id=":1440890411_2_0" index="0" allow="pedestrian delivery bicycle" speed="5.56" length="4.67" shape="805.19,298.42 805.31,296.99 805.81,296.25 806.70,296.21 807.99,296.86"/>
    </edge>
    <edge id=":1440890411_3" function="internal">
        <lane id=":1440890411_3_0" index="0" allow="pedestrian delivery bicycle" speed="5.56" length="6.00" shape="807.09,291.16 806.73,292.30 806.76,293.63 807.18,295.15 807.99,296.86"/>
    </edge>
    <edge id=":1440890411_4" function="internal">
        <lane id=":1440890411_4_0" index="0" allow="pedestrian delivery bicycle" speed="5.56" length="8.95" shape="807.09,291.16 805.76,293.42 804.59,294.81 803.13,295.94 800.92,297.42"/>
    </edge>
    <edge id=":1440890411_5" function="internal">
        <lane id=":1440890411_5_0" index="0" allow="pedestrian delivery bicycle" speed="5.56" length="4.67" shape="807.09,291.16 805.82,291.84 804.93,291.82 804.41,291.09 804.27,289.65"/>
    </edge>
    <edge id=":1440890411_6" function="internal">
        <lane id=":1440890411_6_0" index="0" allow="pedestrian delivery bicycle" speed="5.56" length="7.41" shape="799.11,294.78 800.95,293.56 802.18,292.65 803.16,291.52 804.27,289.65"/>
    </edge>
    <edge id=":1440890411_7" function="internal">
        <lane id=":1440890411_7_0" index="0" allow="pedestrian delivery bicycle" speed="5.56" length="10.63" shape="799.11,294.78 801.76,293.48 804.12,293.39 806.20,294.52 807.99,296.86"/>
    </edge>
    <edge id=":1440890411_8" function="internal">
        <lane id=":1440890411_8_0" index="0" allow="pedestrian delivery bicycle" speed="5.56" length="4.67" shape="799.11,294.78 800.56,294.76 801.34,295.20 801.46,296.08 800.92,297.42"/>
    </edge>
    <edge id=":1440890415_0" function="internal">
        <lane id=":1440890415_0_0" index="0" allow="pedestrian delivery bicycle" speed="5.56" length="5.23" shape="715.73,269.82 714.90,268.57 713.91,267.86 712.76,267.66 711.46,267.99"/>
    </edge>
    <edge id=":1440890415_1" function="internal">
        <lane id=":1440890415_1_0" index="0" allow="pedestrian delivery bicycle" speed="5.56" length="10.43" shape="715.73,269.82 714.82,267.08 715.03,264.76 716.36,262.84 718.81,261.33"/>
    </edge>
    <edge id=":1440890415_2" function="internal">
        <lane id=":1440890415_2_0" index="0" allow="pedestrian delivery bicycle" speed="5.56" length="4.67" shape="715.73,269.82 715.91,268.39 716.45,267.67 717.34,267.67 718.59,268.38"/>
    </edge>
    <edge id=":1440890415_3" function="internal">
        <lane id=":1440890415_3_0" index="0" allow="pedestrian delivery bicycle" speed="5.56" length="5.06" shape="720.09,264.26 718.90,264.99 718.25,265.93 718.15,267.06 718.59,268.38"/>
    </edge>
    <edge id=":1440890415_4" function="internal">
        <lane id=":1440890415_4_0" index="0" allow="pedestrian delivery bicycle" speed="5.56" length="9.40" shape="720.09,264.26 711.46,267.99"/>
    </edge>
    <edge id=":1440890415_5" function="internal">
        <lane id=":1440890415_5_0" index="0" allow="pedestrian delivery bicycle" speed="5.56" length="4.67" shape="720.09,264.26 718.67,264.00 717.98,263.43 718.03,262.54 718.81,261.33"/>
    </edge>
    <edge id=":1440890415_6" function="internal">
        <lane id=":1440890415_6_0" index="0" allow="pedestrian delivery bicycle" speed="5.56" length="9.39" shape="710.20,265.05 718.81,261.33"/>
    </edge>
    <edge id=":1440890415_7" function="internal">
        <lane id=":1440890415_7_0" index="0" allow="pedestrian delivery bicycle" speed="5.56" length="10.17" shape="710.20,265.05 712.80,264.37 715.07,264.70 717.00,266.03 718.59,268.38"/>
    </edge>
    <edge id=":1440890415_8" function="internal">
        <lane id=":1440890415_8_0" index="0" allow="pedestrian delivery bicycle" speed="5.56" length="4.67" shape="710.20,265.05 711.62,265.31 712.30,265.89 712.25,266.78 711.46,267.99"/>
    </edge>
    <edge id=":1440890428_0" function="internal">
        <lane id=":1440890428_0_0" index="0" allow="pedestrian delivery bicycle" speed="5.56" length="4.32" shape="788.17,244.83 787.53,243.73 786.98,243.04 786.29,242.47 785.26,241.72"/>
    </edge>
    <edge id=":1440890428_1" function="internal">
        <lane id=":1440890428_1_0" index="0" allow="pedestrian delivery bicycle" speed="5.56" length="2.34" shape="788.17,244.83 788.30,243.39 788.81,242.65"/>
    </edge>
    <edge id=":1440890428_4" function="internal">
        <lane id=":1440890428_4_0" index="0" allow="pedestrian delivery bicycle" speed="5.56" length="2.34" shape="788.81,242.65 789.70,242.62 790.98,243.29"/>
    </edge>
    <edge id=":1440890428_2" function="internal">
        <lane id=":1440890428_2_0" index="0" allow="pedestrian delivery bicycle" speed="5.56" length="5.75" shape="787.14,239.13 788.51,240.14 789.41,240.91 790.13,241.83 790.98,243.29"/>
    </edge>
    <edge id=":1440890428_3" function="internal">
        <lane id=":1440890428_3_0" index="0" allow="pedestrian delivery bicycle" speed="5.56" length="2.34" shape="787.14,239.13 787.64,240.49 787.49,241.37"/>
    </edge>
    <edge id=":1440890428_5" function="internal">
        <lane id=":1440890428_5_0" index="0" allow="pedestrian delivery bicycle" speed="5.56" length="2.34" shape="787.49,241.37 786.70,241.78 785.26,241.72"/>
    </edge>
    <edge id=":1440890431_0" function="internal">
        <lane id=":1440890431_0_0" index="0" allow="pedestrian delivery bicycle" speed="5.56" length="6.11" shape="757.70,328.95 755.99,327.85 754.48,327.25 753.19,327.16 752.11,327.59"/>
    </edge>
    <edge id=":1440890431_1" function="internal">
        <lane id=":1440890431_1_0" index="0" allow="pedestrian delivery bicycle" speed="5.56" length="11.60" shape="757.70,328.95 755.35,326.61 754.56,324.26 755.31,321.89 757.61,319.50"/>
    </edge>
    <edge id=":1440890431_2" function="internal">
        <lane id=":1440890431_2_0" index="0" allow="pedestrian delivery bicycle" speed="5.56" length="4.67" shape="757.70,328.95 757.22,327.59 757.38,326.71 758.18,326.31 759.62,326.39"/>
    </edge>
    <edge id=":1440890431_3" function="internal">
        <lane id=":1440890431_3_0" index="0" allow="pedestrian delivery bicycle" speed="5.56" length="5.35" shape="759.57,322.02 758.51,323.13 758.17,324.22 758.53,325.31 759.62,326.39"/>
    </edge>
    <edge id=":1440890431_4" function="internal">
        <lane id=":1440890431_4_0" index="0" allow="pedestrian delivery bicycle" speed="5.56" length="9.31" shape="759.57,322.02 752.11,327.59"/>
    </edge>
    <edge id=":1440890431_5" function="internal">
        <lane id=":1440890431_5_0" index="0" allow="pedestrian delivery bicycle" speed="5.56" length="4.67" shape="759.57,322.02 758.13,322.13 757.33,321.75 757.15,320.87 757.61,319.50"/>
    </edge>
    <edge id=":1440890431_6" function="internal">
        <lane id=":1440890431_6_0" index="0" allow="pedestrian delivery bicycle" speed="5.56" length="9.13" shape="750.29,324.96 757.61,319.50"/>
    </edge>
    <edge id=":1440890431_7" function="internal">
        <lane id=":1440890431_7_0" index="0" allow="pedestrian delivery bicycle" speed="5.56" length="10.11" shape="750.29,324.96 752.31,324.05 754.54,323.98 756.98,324.76 759.62,326.39"/>
    </edge>
    <edge id=":1440890431_8" function="internal">