<configuration>
<input>

<net-file value = "Map/mapSimulation.net.xml"/>
<route-files value= "simulation.rou.xml" />
<additional-files value ="ads.xml"  />


</input>






</configuration>
